 # COMPND    UNNAMED
 CRYSTAL
 PRIMVEC
     19.04800000        0.00000000        0.00000000
      0.00000000        9.92400000        0.00000000
      0.00000000        0.00000000        9.19600000
 CONVVEC
     19.04800000        0.00000000        0.00000000
      0.00000000        9.92400000        0.00000000
      0.00000000        0.00000000        9.19600000
 PRIMCOORD
       59 1
6       11.41700000        2.41800000        9.11800000
6       12.94100000        2.17200000        0.21100000
6       11.03400000        3.89800000        9.08500000
1       11.27200000        4.40500000        0.84800000
1        9.97200000        4.02600000        8.82500000
1       11.49300000        4.39800000        8.22800000
6       14.01000000        2.77800000        8.43800000
1       13.05500000        1.06600000        0.15500000
1       13.19200000        2.47100000        1.25200000
6       14.22600000        4.30100000        8.57100000
1       13.42400000        4.91300000        8.14900000
1       15.12200000        4.61400000        7.99700000
1       14.31200000        4.60600000        0.43100000
6       15.37200000        2.01600000        8.53900000
1       13.67600000        2.57600000        7.39600000
6       16.21500000        2.01300000        0.65700000
1       15.13400000        0.95500000        8.30300000
1       16.02300000        2.38100000        7.71600000
6       16.81000000        3.37800000        1.04600000
1       17.33000000        3.85700000        0.19900000
1       17.51300000        3.26300000        1.89800000
1       16.04400000        4.07500000        1.41100000
6       17.33600000        0.93300000        0.56800000
1       15.56900000        1.68600000        1.50100000
6       18.35200000        1.00100000        8.60500000
1       16.82700000        9.87500000        0.45700000
1       17.89200000        0.88400000        1.52900000
6        0.41100000        2.04700000        8.70600000
1       17.86800000        1.00700000        7.60600000
1        0.04300000        3.06900000        8.51900000
1        1.17000000        1.83300000        7.92400000
1        0.90600000        1.99200000        0.50100000
6        4.45200000        1.19500000        0.06100000
6        5.96700000        1.06400000        0.30400000
6        3.76600000        2.37400000        0.75800000
1        4.20100000        1.12500000        8.17700000
1        3.96700000        2.33800000        1.84800000
1        2.67000000        2.29500000        0.60300000
1        4.08300000        3.35900000        0.37600000
6        6.87200000        1.87800000        8.54000000
1        6.21700000        9.91900000        0.13900000
1        6.17500000        1.28300000        1.36900000
6        6.57700000        3.38900000        8.48700000
1        5.57500000        3.56500000        8.05200000
1        7.28700000        3.89200000        7.79700000
1        6.62800000        3.89000000        0.27200000
6        8.38800000        1.59500000        8.76700000
1        6.66300000        1.52400000        7.50500000
6        9.01100000        1.75800000        0.99400000
1        8.59000000        0.54400000        8.46400000
1        8.92000000        2.22700000        8.03200000
6        8.59300000        3.00400000        1.80600000
1        8.81200000        3.97700000        1.34400000
1        9.09200000        2.98400000        2.79800000
1        7.51100000        2.97600000        2.03000000
6       10.57200000        1.59400000        0.95800000
1        8.62600000        0.92100000        1.62000000
1       10.78600000        0.52300000        0.74300000
1       10.94800000        1.78700000        1.98600000
